*Heading
** Job name: Dogbone Model name: Model-1
** Generated by: Abaqus/CAE 2020
*Preprint, echo=NO, model=NO, history=NO, contact=NO
**
** PARTS
**
*Part, name=Part-1
*End Part
**  
**
** ASSEMBLY
**
*Assembly, name=Assembly
**  
*Instance, name=Part-1-1, part=Part-1
*Node
      1,           5.,         -25.,           0.
      2,          -5.,         -25.,           0.
      3,   -3.5557282,  -22.1114559,           0.
      4,         -2.5,  -17.6393204,           0.
      5,         -2.5,           0.,           0.
      6,    3.5557282,  -22.1114559,           0.
      7,          2.5,  -17.6393204,           0.
      8,          2.5,           0.,           0.
      9,           0.,         -35.,           0.
     10,           5.,         -35.,           0.
     11,          -5.,         -35.,           0.
     12,         -2.5,   17.6393204,           0.
     13,   -3.5557282,   22.1114559,           0.
     14,          -5.,          25.,           0.
     15,          2.5,   17.6393204,           0.
     16,    3.5557282,   22.1114559,           0.
     17,           5.,          25.,           0.
     18,           0.,          35.,           0.
     19,          -5.,          35.,           0.
     20,           5.,          35.,           0.
** ... 1951 like lines cut
*Element, type=C3D8
   1,   59,  182,   21,    1,  716,  839,  678,  658
   2,  182,  183,   22,   21,  839,  840,  679,  678
   3,  183,  184,   23,   22,  840,  841,  680,  679
   4,  184,  185,   24,   23,  841,  842,  681,  680
   5,  185,  186,   25,   24,  842,  843,  682,  681
   6,  186,  187,   26,   25,  843,  844,  683,  682
   7,  187,  188,   27,   26,  844,  845,  684,  683
   8,  188,   28,    2,   27,  845,  685,  659,  684
   9,   58,  189,  182,   59,  715,  846,  839,  716
  10,  189,  190,  183,  182,  846,  847,  840,  839
  11,  190,  191,  184,  183,  847,  848,  841,  840
  12,  191,  192,  185,  184,  848,  849,  842,  841
  13,  192,  193,  186,  185,  849,  850,  843,  842
  14,  193,  194,  187,  186,  850,  851,  844,  843
  15,  194,  195,  188,  187,  851,  852,  845,  844
  16,  195,   29,   28,  188,  852,  686,  685,  845
  17,    6,  196,  189,   58,  663,  853,  846,  715
  18,  196,  197,  190,  189,  853,  854,  847,  846
  19,  197,  198,  191,  190,  854,  855,  848,  847
  20,  198,  199,  192,  191,  855,  856,  849,  848
** ... 1132 like lines cut
*Nset, nset=Set-1, generate
    1,  1971,     1
*Elset, elset=Set-1, generate
    1,  1152,     1
** Section: Section-1
*Solid Section, elset=Set-1, material=LDPE
1.2,
*End Instance
**  
*Node
      1,           0.,          35.,  0.800000012
*Nset, nset=RP
 1,
*Nset, nset=Set-3, instance=Part-1-1
  17,  20, 173, 174, 175, 176, 177, 178, 179, 180, 181
*Elset, elset=Set-3, instance=Part-1-1, generate
 497,  569,    8
*Nset, nset=Set-6, instance=Part-1-1
    9,   10,   11,   90,   91,   92,   93,   94,   95,  666,  667,  668,  747,  748,  749,  750
  751,  752, 1323, 1324, 1325, 1404, 1405, 1406, 1407, 1408, 1409
*Elset, elset=Set-6, instance=Part-1-1
 281, 282, 283, 284, 285, 286, 287, 288, 857, 858, 859, 860, 861, 862, 863, 864
*Nset, nset=Set-7
 1,
*Nset, nset=m_Set-4
 1,
*Elset, elset=my_ele, instance=Part-1-1
 763,
*Nset, nset=try_next, instance=Part-1-1
 1744,
*Elset, elset=_s_Surf-2_S3, internal, instance=Part-1-1
  569,  570,  571,  572,  573,  574,  575,  576, 1145, 1146, 1147, 1148, 1149, 1150, 1151, 1152
*Surface, type=ELEMENT, name=s_Surf-2
_s_Surf-2_S3, S3
** Constraint: Constraint-1
*Coupling, constraint name=Constraint-1, ref node=m_Set-4, surface=s_Surf-2
*Kinematic
*End Assembly
** 
** MATERIALS
** 
*Material, name=LDPE
*Elastic
250., 0.4
*Plastic
 2.02275,        0.
 4.39524, 0.0061344
 6.08995, 0.0152615
 7.33958, 0.0263669
 8.26116, 0.0389505
 8.93608, 0.0526105
 9.42222, 0.0671097
  9.7709, 0.0822398
 10.0162, 0.0978095
 10.1965,  0.113668
 10.3306,  0.129752
  10.434,  0.145953
 10.5178,   0.16224
 10.5924,  0.178588
 10.6689,  0.194908
 10.7414,  0.211246
 10.8152,  0.227598
 10.8925,  0.243914
 10.9646,  0.260254
 11.0351,   0.27662
** ... 20 like lines cut
*Material, name=LDPE-softening
*Elastic
250., 0.4
*Plastic
 2.02275,        0.
 4.39524, 0.0061344
 6.08995, 0.0152615
 7.33958, 0.0263669
 8.26116, 0.0389505
 8.93608, 0.0526105
 9.42222, 0.0671097
  9.7709, 0.0822398
 10.0162, 0.0978095
 10.1965,  0.113668
 10.3306,  0.129752
  10.434,  0.145953
 10.5178,   0.16224
 10.5924,  0.178588
 10.6689,  0.194908
 10.7414,  0.211246
 10.8152,  0.227598
 10.8925,  0.243914
 10.9646,  0.260254
 11.0351,   0.27662
** ... 21 like lines cut
** ----------------------------------------------------------------
** 
** STEP: Step-1
** 
*Step, name=Step-1, nlgeom=NO, inc=1000
*Static
0.001, 1., 1e-15, 1.
** 
** BOUNDARY CONDITIONS
** 
** Name: BC-1 Type: Displacement/Rotation
*Boundary
Set-7, 2, 2, 300.
Set-7, 4, 4
Set-7, 5, 5
Set-7, 6, 6
** Name: BC-2 Type: Symmetry/Antisymmetry/Encastre
*Boundary
Set-6, ENCASTRE
** 
** OUTPUT REQUESTS
** 
*Restart, write, frequency=0
** 
** FIELD OUTPUT: F-Output-1
** 
*Output, field, variable=PRESELECT
** 
** HISTORY OUTPUT: H-Output-1
** 
*Output, history
*Node Output, nset=RP
RF2, U2
*NODE PRINT, nset=RP, frequency=1
U2,RF2
*EL PRINT, elset=my_ele, frequency=1
PE22,S22
*End Step
